104

O 	   -0.09039 	    1.22419 	   -0.11738  
C 	    0.59539 	    0.35797 	   -1.00896  
C 	   -1.03778 	    0.38448 	    0.52517  
C 	    0.84328 	   -0.92661 	   -0.21385  
C 	   -0.28195 	   -0.90835 	    0.84313  
H 	    1.50019 	    0.86171 	   -1.33534  
H 	   -1.41121 	    0.90897 	    1.39948  
H 	   -0.03588 	    0.15531 	   -1.88088  
H 	   -1.87203 	    0.18512 	   -0.15609  
H 	    1.81864 	   -0.89555 	    0.26336  
H 	    0.13399 	   -0.86821 	    1.84583  
H 	    0.80565 	   -1.80695 	   -0.85022  
H 	   -0.92982 	   -1.77878 	    0.77998  
O 	    5.62113 	    9.50304 	   10.02973  
C 	    6.76720 	    9.97970 	    9.34064  
C 	    5.57107 	   10.29060 	   11.20989  
C 	    6.71089 	   11.50423 	    9.46880  
C 	    5.88678 	   11.71843 	   10.75668  
H 	    6.71846 	    9.61625 	    8.31864  
H 	    4.58615 	   10.17048 	   11.65088  
H 	    7.67137 	    9.58636 	    9.81770  
H 	    6.32657 	    9.93590 	   11.91927  
H 	    6.20390 	   11.93883 	    8.61200  
H 	    4.97007 	   12.25954 	   10.54017  
H 	    7.70491 	   11.93952 	    9.53059  
H 	    6.43387 	   12.26988 	   11.51692  
O 	   18.46836 	    9.98550 	    9.11404  
C 	   19.35056 	    9.85883 	   10.21913  
C 	   17.27343 	   10.50343 	    9.67921  
C 	   19.15864 	   11.13792 	   11.03821  
C 	   17.72754 	   11.58203 	   10.66622  
H 	   20.35578 	    9.72461 	    9.83122  
H 	   16.65295 	   10.87371 	    8.86874  
H 	   19.07416 	    8.97852 	   10.80945  
H 	   16.73886 	    9.70323 	   10.20243  
H 	   19.88338 	   11.89089 	   10.74187  
H 	   17.74078 	   12.55580 	   10.18495  
H 	   19.27673 	   10.95498 	   12.10308  
H 	   17.06950 	   11.63994 	   11.52936  
O 	   17.15821 	   10.56504 	   -0.02266  
C 	   18.01945 	   10.20469 	   -1.09221  
C 	   17.96857 	   10.43709 	    1.13599  
C 	   19.35539 	   10.88510 	   -0.78221  
C 	   19.32034 	   11.04521 	    0.75298  
H 	   17.55724 	   10.53153 	   -2.01876  
H 	   17.46654 	   10.94583 	    1.95338  
H 	   18.13822 	    9.11604 	   -1.11600  
H 	   18.08101 	    9.37733 	    1.38914  
H 	   19.40922 	   11.85516 	   -1.26813  
H 	   19.35674 	   12.09488 	    1.03030  
H 	   20.19850 	   10.28912 	   -1.12183  
H 	   20.14443 	   10.53606 	    1.24593  
O 	    7.08899 	   11.28789 	    0.38916  
C 	    7.15513 	   10.21051 	   -0.53302  
C 	    5.74677 	   11.74172 	    0.29969  
C 	    5.86332 	    9.41684 	   -0.32068  
C 	    4.89298 	   10.47182 	    0.25304  
H 	    8.06178 	    9.64944 	   -0.32773  
H 	    5.55114 	   12.37907 	    1.15671  
H 	    7.20148 	   10.60458 	   -1.55399  
H 	    5.61808 	   12.32610 	   -0.61779  
H 	    6.02379 	    8.61433 	    0.39363  
H 	    4.57103 	   10.19379 	    1.25258  
H 	    5.50406 	    8.97795 	   -1.24786  
H 	    4.00748 	   10.60506 	   -0.36301  
O 	   13.04887 	   -0.92911 	   10.35717  
C 	   11.63878 	   -1.05290 	   10.24822  
C 	   13.34616 	    0.28204 	    9.67874  
C 	   11.08802 	    0.35038 	   10.51518  
C 	   12.26436 	    1.27013 	   10.12281  
H 	   11.31250 	   -1.80302 	   10.96223  
H 	   14.35618 	    0.57672 	    9.94703  
H 	   11.37712 	   -1.38330 	    9.23718  
H 	   13.29670 	    0.11755 	    8.59692  
H 	   10.84286 	    0.46834 	   11.56684  
H 	   12.60404 	    1.84536 	   10.97940  
H 	   10.19075 	    0.54739 	    9.93425  
H 	   12.00506 	    1.96593 	    9.32909  
O 	   -0.51879 	   -1.02538 	    9.72274  
C 	   -1.21859 	    0.08692 	   10.25997  
C 	    0.73112 	   -0.48820 	    9.31693  
C 	   -0.18790 	    0.84542 	   11.10028  
C 	    1.15542 	    0.44918 	   10.45054  
H 	   -2.06405 	   -0.29147 	   10.82653  
H 	    1.41165 	   -1.31671 	    9.14540  
H 	   -1.58795 	    0.71652 	    9.44326  
H 	    0.60409 	    0.06992 	    8.38301  
H 	   -0.22552 	    0.51667 	   12.13495  
H 	    1.78565 	   -0.07656 	   11.16218  
H 	   -0.36285 	    1.91795 	   11.07929  
H 	    1.70898 	    1.30682 	   10.07718  
O 	   12.80150 	   -1.00402 	    0.46829  
C 	   13.12252 	    0.33817 	    0.80145  
C 	   11.46795 	   -0.93439 	   -0.01371  
C 	   12.56586 	    1.18388 	   -0.34689  
C 	   11.42589 	    0.30712 	   -0.90852  
H 	   14.19951 	    0.40455 	    0.92245  
H 	   11.24996 	   -1.86399 	   -0.53071  
H 	   12.63886 	    0.60661 	    1.74689  
H 	   10.77865 	   -0.82411 	    0.83042  
H 	   13.32972 	    1.34974 	   -1.10123  
H 	   11.62299 	    0.03709 	   -1.94208  
H 	   12.21664 	    2.15293 	    0.00003  
H 	   10.45843 	    0.80068 	   -0.86617  
